/*--------------------------------*- C++ -*----------------------------------*\
  =========                 |
  \\      /  F ield         | OpenFOAM: The Open Source CFD Toolbox
   \\    /   O peration     | Website:  https://openfoam.org
    \\  /    A nd           | Version:  7
     \\/     M anipulation  |
\*---------------------------------------------------------------------------*/
FoamFile
{
    version     2.0;
    format      ascii;
    class       dictionary;
    location    "system";
    object      setFieldsDict;
}
// * * * * * * * * * * * * * * * * * * * * * * * * * * * * * * * * * * * * * //

defaultFieldValues
(
);

// Initialize
regions
(
    // Inside 
    boxToCell
    {
        box (-1 -1 -1) (1 34.6e-3 92.0e-3 );
        fieldValues
        (
            	volScalarFieldValue CH4  	0.046296296
            	volScalarFieldValue O2   	0.222222222
            	volScalarFieldValue N2   	0.731481482

		volScalarFieldValue CO		0.
		volScalarFieldValue CO2   	0.
		volScalarFieldValue H2O   	0.
        );
    }
         
    // Inside
    boxToCell
    {
        box (-1 -1 -1) (1 34.6e-3 92e-3);
        fieldValues
        (
            	volScalarFieldValue T   298.15
        );
    } 
);


// ************************************************************************* //
