/*--------------------------------*- C++ -*----------------------------------*\
| =========                 |                                                 |
| \\      /  F ield         | OpenFOAM: The Open Source CFD Toolbox           |
|  \\    /   O peration     | Version:  1.7.1                                 |
|   \\  /    A nd           | Web:      www.OpenFOAM.com                      |
|    \\/     M anipulation  |                                                 |
\*---------------------------------------------------------------------------*/
FoamFile
{
    version     2.0;
    format      binary;
    class       dictionary;
    location    "system";
    object      controlDict;
}
// * * * * * * * * * * * * * * * * * * * * * * * * * * * * * * * * * * * * * //

application     	laminarMultiRegionSimpleSMOKE++;

startFrom       	latestTime;

startTime       	0;

stopAt          	endTime;

endTime         	400000;

deltaT          	1;

writeControl    	timeStep;

writeInterval   	2000;

purgeWrite      	2;

writeFormat     	ascii;

writePrecision  	12;

writeCompression 	uncompressed;

timeFormat      	general;

timePrecision   	6;

runTimeModifiable 	true;

fluid			on;
solid			on;

functions
{
        #include "FOintegrals"
}

