/*--------------------------------*- C++ -*----------------------------------*\
  =========                 |
  \\      /  F ield         | OpenFOAM: The Open Source CFD Toolbox
   \\    /   O peration     | Website:  https://openfoam.org
    \\  /    A nd           | Version:  7
     \\/     M anipulation  |
\*---------------------------------------------------------------------------*/
FoamFile
{
    version     2.0;
    format      ascii;
    class       volScalarField;
    location    "0/solid";
    object      cellToRegion;
}
// * * * * * * * * * * * * * * * * * * * * * * * * * * * * * * * * * * * * * //

dimensions      [0 0 0 0 0 0 0];

internalField   uniform 1;

boundaryField
{
    sideWest
    {
        type            symmetryPlane;
    }
    sideEast
    {
        type            symmetryPlane;
    }
    faceSouth
    {
        type            symmetryPlane;
    }
    faceNorth
    {
        type            symmetryPlane;
    }
    solid_to_fluid
    {
        type            calculated;
        value           uniform 0;
    }
}


// ************************************************************************* //
