/*--------------------------------*- C++ -*----------------------------------*\
  =========                 |
  \\      /  F ield         | OpenFOAM: The Open Source CFD Toolbox
   \\    /   O peration     | Website:  https://openfoam.org
    \\  /    A nd           | Version:  7
     \\/     M anipulation  |
\*---------------------------------------------------------------------------*/
FoamFile
{
    version     2.0;
    format      ascii;
    class       volScalarField;
    location    "0/fluid";
    object      G;
}
// * * * * * * * * * * * * * * * * * * * * * * * * * * * * * * * * * * * * * //

dimensions      [1 0 -3 0 0 0 0];

internalField   uniform 0.;

boundaryField
{
    inlet
    {
        type            MarshakRadiation;
        emissivityMode  lookup;
        emissivity      uniform 0.90;
        value           uniform 0;
    }
    outlet
    {
        type            MarshakRadiation;
        emissivityMode  lookup;
        emissivity      uniform 0.90;
        value           uniform 0;
    }


    leftSide
    {
        type            zeroGradient;
    }
    coldWall
    {
        type            MarshakRadiation;
        emissivityMode  lookup;
        emissivity      uniform 0.90;
        value           uniform 0;
    }
    front
    {
        type            wedge;
    }
    back
    {
        type            wedge;
    }
    fluid_to_solid
    {
        type            MarshakRadiation;
        emissivityMode  lookup;
        emissivity      uniform 0.90;
        value           uniform 0;
    }

}


// ************************************************************************* //
