/*--------------------------------*- C++ -*----------------------------------*\
  =========                 |
  \\      /  F ield         | OpenFOAM: The Open Source CFD Toolbox
   \\    /   O peration     | Website:  https://openfoam.org
    \\  /    A nd           | Version:  7
     \\/     M anipulation  |
\*---------------------------------------------------------------------------*/
FoamFile
{
    version     2.0;
    format      ascii;
    class       volScalarField;
    location    "0/fluid";
    object      N2;
}
// * * * * * * * * * * * * * * * * * * * * * * * * * * * * * * * * * * * * * //

dimensions      [0 0 0 0 0 0 0];

internalField   uniform 0.73;

boundaryField
{
    inlet
    {
        type            fixedValue;
        value           uniform 0.73148;
    }
    outlet
    {
        type            inletOutlet;
        inletValue      uniform 0.73;
        value           uniform 0.73;
    }

    leftSide
    {
        type            zeroGradient;
    }
    coldWall
    {
        type            zeroGradient;
    }
    front
    {
        type            wedge;
    }
    back
    {
        type            wedge;
    }
    fluid_to_solid
    {
        type            zeroGradient;
    }
}


// ************************************************************************* //
