ELEMENTS
N O H C
END

SPECIES
CH4 O2 CO2 CO H2O N2
END

REACTIONS

CH4 + 1.5O2 => CO + 2H2O       	4.9e9 0 	35500
FORD /CH4  0.50/
FORD /O2   0.65/

CO + 0.50O2 <=> CO2		2e8	0.7	12000
FORD /CO  1.00/
FORD /O2  0.50/

END
