/*--------------------------------*- C++ -*----------------------------------*\
| =========                 |                                                 |
| \\      /  F ield         | OpenFOAM: The Open Source CFD Toolbox           |
|  \\    /   O peration     | Version:  2.2.2                                 |
|   \\  /    A nd           | Web:      www.OpenFOAM.org                      |
|    \\/     M anipulation  |                                                 |
\*---------------------------------------------------------------------------*/
FoamFile
{
    version     2.2;
    format      ascii;
    class       dictionary;
    location    "system";
    object      fvSchemes;
}
// * * * * * * * * * * * * * * * * * * * * * * * * * * * * * * * * * * * * * //

ddtSchemes
{
    default         steadyState;
}

gradSchemes
{
    default         Gauss linear;
}

divSchemes
{
    default         			none;

    div(phi,U)      			Gauss upwind;
    div(phi,Yi_hs)   			Gauss upwind;
    div(phic,Yi)    			Gauss upwind;
    div(phi,T)      			Gauss upwind;
    div(phid,p)     			Gauss upwind;
    div(mix:hs_Js)  			Gauss upwind;
    div((mix:mu*dev2(grad(U).T())))	Gauss linear;
    div(phi,csi)      			Gauss upwind;
    div(phi,tau)      			Gauss upwind;
}

laplacianSchemes
{
    default         Gauss linear corrected;
}

interpolationSchemes
{
    default         linear;
}

snGradSchemes
{
    default         corrected;
}

fluxRequired
{
    default         no;
    p                 ;
}


// ************************************************************************* //
