/*--------------------------------*- C++ -*----------------------------------*\
| =========                 |                                                 |
| \\      /  F ield         | OpenFOAM: The Open Source CFD Toolbox           |
|  \\    /   O peration     | Version:  2.2.2                                 |
|   \\  /    A nd           | Web:      www.OpenFOAM.org                      |
|    \\/     M anipulation  |                                                 |
\*---------------------------------------------------------------------------*/
FoamFile
{
    version     2.2;
    format      ascii;
    class       dictionary;
    location    "system";
    object      fvSolution;
}
// * * * * * * * * * * * * * * * * * * * * * * * * * * * * * * * * * * * * * //

solvers
{
    p
    {
        solver                GAMG;
        tolerance             1e-7;
        relTol                0.01;
        smoother              DICGaussSeidel;
        cacheAgglomeration    true;
        nCellsInCoarsestLevel 10;
        agglomerator          faceAreaPair;
        mergeLevels           1;
    }

    U
    {
        solver          smoothSolver;
        smoother  	GaussSeidel;
	nSweeps		2;
        tolerance       1e-06;
        relTol          1e-04;
    }

    T
    {
        solver          smoothSolver;
        smoother  	GaussSeidel;
        tolerance       1e-09;
        relTol          1e-06;
	minIter		1;
    }

    H
    {
        solver          smoothSolver;
        smoother  	GaussSeidel;
        tolerance       1e-09;
        relTol          1e-06;
	minIter		1;
    }

    Yi
    {
        solver          smoothSolver;
        smoother  	GaussSeidel;
        tolerance       1e-09;
        relTol          1e-06;
	minIter		1;
    }

    G
    {
        solver          smoothSolver;
        smoother  	GaussSeidel;
        tolerance       1e-09;
        relTol          1e-06;
	minIter		1;
    }

    csi
    {
        solver          smoothSolver;
        smoother  	GaussSeidel;
        tolerance       1e-09;
        relTol          1e-06;
	minIter		1;
    }

    tau
    {
        solver          smoothSolver;
        smoother  	GaussSeidel;
        tolerance       1e-09;
        relTol          1e-06;
	minIter		1;
    }
}

SIMPLE
{
    nNonOrthogonalCorrectors 	0;

    pRefCell        		0;
    pRefValue       		0;

    residualControl
    {
        p           	1e-8;
        U               1e-8;
        T               1e-8;
	H		1e-8;
	Yi		1e-8;
	csi		1e-8;
	tau		1e-8;
	G		1e-8;
    }
}

relaxationFactors
{
    fields
    {
        p           	0.3;
	rho		0.1;
    }

    equations
    {
	default		0.3;

        U               0.3;
        T               0.3;
	hs		0.3;
        Yi 		0.3;
	csi		0.3;
	tau		0.3;
	G		0.3;
    }
}


// ************************************************************************* //
