/*--------------------------------*- C++ -*----------------------------------*\
  =========                 |
  \\      /  F ield         | OpenFOAM: The Open Source CFD Toolbox
   \\    /   O peration     | Website:  https://openfoam.org
    \\  /    A nd           | Version:  7
     \\/     M anipulation  |
\*---------------------------------------------------------------------------*/
FoamFile
{
    version     2.0;
    format      ascii;
    class       volScalarField;
    location    "0/fluid";
    object      CH4;
}
// * * * * * * * * * * * * * * * * * * * * * * * * * * * * * * * * * * * * * //

dimensions      [0 0 0 0 0 0 0];

internalField   uniform 0.0;

boundaryField
{

    inlet
    {
        type            fixedValue;
        value           uniform 0.046296;
    }
    outlet
    {
        type            inletOutlet;
        inletValue      uniform 0;
        value           uniform 0;
    }

    sideWest
    {
        type            symmetryPlane;
    }
    sideEast
    {
        type            symmetryPlane;
    }
    faceNorth
    {
        type            zeroGradient;
    }
    faceSouth
    {
        type            zeroGradient;
    }

    heatExchanger
    {
        type            zeroGradient;
    }

    fluid_to_solid
    {
        type            zeroGradient;
    }

    axis
    {
        type            symmetryPlane;
    }
}


// ************************************************************************* //
